7E7&a10L7&l80F7&l8D7(s0p16.67h8.5
                          DECOMPRESSION CALCULATION PROGRAM
                        Developed in FORTRAN by Erik C. Baker
 
 
Program Run:    02-05-2020 at 08:46 pm                       Model: ZH-L16B/GF
 
Description:    SAMPLE DIVE TO 90 METERS OF SEAWATER GAUGE (MSWG) FOR 20 MINUTES      
 
Gasmix Summary:                        FO2    FHe    FN2
                          Gasmix # 1  0.130  0.500  0.370
                          Gasmix # 2  0.360  0.000  0.640
                          Gasmix # 3  0.500  0.000  0.500
                          Gasmix # 4  0.800  0.000  0.200
 
 
                                    DIVE PROFILE
 
Seg-  Segm.  Run   | Gasmix | Ascent    From     To      Rate    | Constant
ment  Time   Time  |  Used  |   or     Depth   Depth    +Dn/-Up  |  Depth
  #   (min)  (min) |    #   | Descent  (mswg)  (mswg)  (msw/min) |  (mswg)
----- -----  ----- | ------ | -------  ------  ------  --------- | --------
  1     3.9    3.9 |    1   | Descent     0.     90.      23.0   |
  2    16.1   20.0 |    1   |                                    |    90.
 
 
                               DECOMPRESSION PROFILE
 
          Leading compartment enters the decompression zone at   71.0 mswg
                 Deepest possible decompression stop is   69.0 mswg
 
Seg-  Segm.  Run   | Gasmix | Ascent   Ascent         |  DECO   STOP   RUN
ment  Time   Time  |  Used  |   To      Rate    Grad. |  STOP   TIME   TIME
  #   (min)  (min) |    #   | (mswg) (msw/min) Factor | (mswg)  (min)  (min)
----- -----  ----- | ------ | ------ --------- ------ | ------  -----  -----
  3     3.6   23.6 |    1   |   54.    -10.0          |
  4     0.4   24.0 |    1   |                   0.30  |    54      2     24
  5     0.3   24.3 |    1   |   51.    -10.0          |
  6     1.7   26.0 |    1   |                   0.33  |    51      2     26
  7     0.3   26.3 |    1   |   48.    -10.0          |
  8     1.7   28.0 |    1   |                   0.35  |    48      2     28
  9     0.3   28.3 |    1   |   45.    -10.0          |
 10     1.7   30.0 |    1   |                   0.38  |    45      2     30
 11     0.3   30.3 |    1   |   42.    -10.0          |
 12     1.7   32.0 |    1   |                   0.40  |    42      2     32
 13     0.3   32.3 |    1   |   39.    -10.0          |
 14     1.7   34.0 |    1   |                   0.43  |    39      2     34
 15     0.3   34.3 |    1   |   36.    -10.0          |
 16     1.7   36.0 |    1   |                   0.45  |    36      2     36
 17     0.3   36.3 |    1   |   33.    -10.0          |
 18     1.7   38.0 |    2   |                   0.48  |    33      2     38
 19     0.3   38.3 |    2   |   30.    -10.0          |
 20     1.7   40.0 |    2   |                   0.50  |    30      2     40
 21     0.3   40.3 |    2   |   27.    -10.0          |
 22     1.7   42.0 |    2   |                   0.52  |    27      2     42
 23     0.3   42.3 |    2   |   24.    -10.0          |
 24     1.7   44.0 |    2   |                   0.55  |    24      2     44
 25     0.3   44.3 |    2   |   21.    -10.0          |
 26     3.7   48.0 |    3   |                   0.58  |    21      4     48
 27     0.3   48.3 |    3   |   18.    -10.0          |
 28     3.7   52.0 |    3   |                   0.60  |    18      4     52
 29     0.3   52.3 |    3   |   15.    -10.0          |
 30     5.7   58.0 |    3   |                   0.62  |    15      6     58
 31     0.3   58.3 |    3   |   12.    -10.0          |
 32     7.7   66.0 |    3   |                   0.65  |    12      8     66
 33     0.3   66.3 |    3   |    9.    -10.0          |
 34     9.7   76.0 |    4   |                   0.68  |     9     10     76
 35     0.3   76.3 |    4   |    6.    -10.0          |
 36    17.7   94.0 |    4   |                   0.70  |     6     18     94
 37     0.3   94.3 |    4   |    3.    -10.0          |
 38    33.7  128.0 |    4   |                   0.73  |     3     34    128
 39     0.3  128.3 |    4   |    0.    -10.0          |
                                                0.75  |
[insert page break code 012]
